LTspice 24.1.9 for Windows
Circuit: C:\Users\Mohammad Amash\Documents\LTspice\Draft1.net
Start Time: Thu Jun 19 15:04:49 2025
Options: ALLOW_AMBIGUOUS_MODELS  ALLOW_AMBIGUOUS_MODELS
C:\Users\Mohammad Amash\Documents\LTspice\Draft1.net(22): Ignoring unknown model parameter. This may or may not be a problem.
+xw=  0                    binflag=  0
       ^^^^^^^^^^^^^^^^^^^^^^^^^^^^^^^
C:\Users\Mohammad Amash\Documents\LTspice\Draft1.net(67): Ignoring unknown model parameter. This may or may not be a problem.
+xw= 0.00###> +binflag=  0<###               Dwg= 0.00                   Dwb= 0.00
C:\Users\Mohammad Amash\Documents\LTspice\Draft1.net(70): Ignoring unknown model parameter. This may or may not be a problem.
+rsh= 0                    rd= 0                       rs= 0###> +rsc= 0<###                    rdc= 0
C:\Users\Mohammad Amash\Documents\LTspice\Draft1.net(71): Ignoring unknown model parameter. This may or may not be a problem.
+rsc= 0                    rdc= 0
       ^^^^^^^^^^^^^^^^^^^^^^^^^^
C:\Users\Mohammad Amash\Documents\LTspice\Draft1.net(3): This model has multiple definitions. Choosing one for you, unwisely. (Note: Option "ALLOW_AMBIGUOUS_MODELS" is enabled.)
M1 N001 Vin Vout N001 PMOS l=180n w=900n
                      ^^^^
C:\Users\Mohammad Amash\Documents\LTspice\Draft1.net(4): This model has multiple definitions. Choosing one for you, unwisely. (Note: Option "ALLOW_AMBIGUOUS_MODELS" is enabled.)
M2 Vout Vin 0 0 NMOS l=180n w=360n
                ^^^^
solver = Normal
Maximum thread count: 12
tnom = 27
temp = 27
method = trap
Instance "M2": Length shorter than recommended for a level 1 MOSFET.
Instance "M2": Width narrower than recommended for a level 1 MOSFET.
Instance "M1": Length shorter than recommended for a level 1 MOSFET.
Instance "M1": Width narrower than recommended for a level 1 MOSFET.
Direct Newton iteration for .op point succeeded.
Total elapsed time: 0.139 seconds.

Files loaded:
C:\Users\Mohammad Amash\Documents\LTspice\Draft1.net
C:\Users\Mohammad Amash\AppData\Local\LTspice\lib\cmp\standard.mos

